Version 4
SHEET 1 880 1856
WIRE 416 256 368 256
WIRE 576 256 416 256
WIRE -2000 272 -2000 192
WIRE -1808 272 -1808 192
WIRE -1680 272 -1680 192
WIRE -1552 272 -1552 176
WIRE 320 272 -784 272
WIRE 368 272 368 256
WIRE 368 272 320 272
WIRE -784 304 -784 272
WIRE 320 368 320 272
WIRE 416 368 416 256
WIRE 576 368 576 336
WIRE -256 384 -256 352
WIRE -256 384 -432 384
WIRE -2000 400 -2000 352
WIRE -1808 400 -1808 352
WIRE -1680 400 -1680 352
WIRE -1552 400 -1552 352
WIRE -256 400 -256 384
WIRE 576 480 576 432
WIRE -256 560 -256 480
WIRE -144 560 -256 560
WIRE -48 560 -144 560
WIRE 208 560 32 560
WIRE 320 560 320 432
WIRE 320 560 208 560
WIRE 416 560 416 432
WIRE 416 560 320 560
WIRE 576 560 416 560
WIRE -144 608 -144 560
WIRE 208 624 208 560
WIRE -2416 832 -2560 832
WIRE -2208 848 -2352 848
WIRE -1584 864 -1584 752
WIRE -2416 896 -2464 896
WIRE -2208 912 -2208 848
WIRE -1680 912 -1968 912
WIRE -1440 944 -1488 944
WIRE -1680 976 -1808 976
WIRE -1440 976 -1440 944
WIRE -2656 992 -2720 992
WIRE -1968 992 -1968 912
WIRE -2208 1040 -2208 992
WIRE -2912 1104 -2960 1104
WIRE -2800 1104 -2800 992
WIRE -2800 1104 -2832 1104
WIRE -2768 1104 -2800 1104
WIRE -1440 1104 -1440 1056
WIRE -2656 1120 -2656 992
WIRE -2656 1120 -2704 1120
WIRE -2464 1120 -2464 896
WIRE -2464 1120 -2656 1120
WIRE -1968 1136 -1968 1072
WIRE -1584 1152 -1584 1040
WIRE -2960 1216 -2960 1104
FLAG -144 608 0
FLAG -1808 192 +5
FLAG -2000 192 -5
FLAG -1808 400 0
FLAG -2000 400 0
FLAG -1968 1136 0
FLAG -1440 1104 0
FLAG -1808 976 +5
FLAG -1584 752 +15
FLAG -1584 1152 -15
FLAG -1680 400 0
FLAG -1552 400 0
FLAG -1680 192 +15
FLAG -1552 176 -15
FLAG -432 384 vsense
FLAG 208 624 isense
FLAG -784 384 0
FLAG -2560 832 vsense
FLAG -2768 1136 isense
FLAG -2208 1040 0
FLAG -2736 1088 +15
FLAG -2736 1152 -15
FLAG -2960 1216 0
FLAG -2464 1120 isense_amp
SYMBOL cap 400 368 R0
SYMATTR InstName C1
SYMATTR Value 1.1n
SYMBOL cap 560 368 R0
SYMATTR InstName C2
SYMATTR Value 374p
SYMBOL res 560 464 R0
SYMATTR InstName R1
SYMATTR Value 63
SYMBOL ind 560 240 R0
SYMATTR InstName L1
SYMATTR Value 76m
SYMBOL res -272 384 R0
SYMATTR InstName R4
SYMATTR Value 10k
SYMBOL voltage -2000 256 R0
SYMATTR InstName V1
SYMATTR Value -5
SYMBOL voltage -1808 256 R0
SYMATTR InstName V2
SYMATTR Value 5
SYMBOL voltage -1968 976 R0
SYMATTR InstName V3
SYMATTR Value 3
SYMBOL res -1456 960 R0
SYMATTR InstName R5
SYMATTR Value 1G
SYMBOL vco -1584 944 R0
SYMATTR InstName X1
SYMBOL voltage -1680 256 R0
SYMATTR InstName V4
SYMATTR Value 15
SYMBOL voltage -1552 256 R0
SYMATTR InstName V5
SYMATTR Value -15
SYMBOL voltage -784 288 R0
SYMATTR InstName V6
SYMATTR Value ac 1
SYMATTR Value2 AC 5
SYMBOL Digital/xor -2368 800 R0
SYMATTR InstName A1
SYMBOL res -2224 896 R0
SYMATTR InstName R6
SYMATTR Value 1G
SYMBOL Opamps/OP07 -2736 1056 R0
SYMATTR InstName U1
SYMBOL res -2704 976 R90
WINDOW 0 0 56 VBottom 2
WINDOW 3 32 56 VTop 2
SYMATTR InstName R7
SYMATTR Value 100meg
SYMBOL res -2816 1088 R90
WINDOW 0 0 56 VBottom 2
WINDOW 3 32 56 VTop 2
SYMATTR InstName R8
SYMATTR Value 10k
SYMBOL res 48 544 R90
WINDOW 0 0 56 VBottom 2
WINDOW 3 32 56 VTop 2
SYMATTR InstName R2
SYMATTR Value 1
TEXT 408 216 Left 2 ;piezoelectric element
TEXT -40 640 Left 2 ;current sense
TEXT -320 232 Left 2 ;voltage sense
TEXT -1952 136 Left 2 ;supply rails
TEXT -1688 752 Left 2 ;vco
TEXT -824 504 Left 2 !.ac dec 1k 10k 100k
TEXT -824 536 Left 2 ;.step param l list 1e-30 1m
TEXT 128 200 Left 2 ;matching network
TEXT -816 568 Left 2 ;.step param c list 1e-30 2.4n
TEXT -824 600 Left 2 ;.step param Rm list 1e-30 63 100 1k
RECTANGLE Normal 364 236 652 620 2
RECTANGLE Normal -352 256 -164 508 2
RECTANGLE Normal -84 500 88 612 2
RECTANGLE Normal 100 236 364 620 2
