Version 4
SHEET 1 1248 680
WIRE 608 -576 608 -624
WIRE 288 -544 272 -544
WIRE 448 -544 352 -544
WIRE 736 -480 736 -512
WIRE 736 -480 720 -480
WIRE 368 -464 368 -608
WIRE 368 -464 352 -464
WIRE 688 -464 496 -464
WIRE 128 -448 112 -448
WIRE 272 -448 272 -544
WIRE 272 -448 208 -448
WIRE 320 -448 272 -448
WIRE 848 -448 752 -448
WIRE 448 -432 448 -544
WIRE 448 -432 384 -432
WIRE 496 -432 496 -464
WIRE 496 -432 448 -432
WIRE 608 -432 608 -496
WIRE 688 -432 608 -432
WIRE 112 -416 112 -448
WIRE 112 -416 -240 -416
WIRE 304 -416 224 -416
WIRE 320 -416 304 -416
WIRE 352 -352 352 -400
WIRE 112 -336 112 -416
WIRE 224 -336 224 -416
WIRE 224 -336 192 -336
WIRE 304 -336 304 -416
WIRE 608 -304 608 -432
WIRE 688 -304 608 -304
WIRE 848 -304 848 -448
WIRE 848 -304 768 -304
WIRE 608 -240 608 -304
WIRE 304 -192 304 -256
WIRE 272 -176 272 -448
WIRE 848 -160 848 -304
WIRE 976 -160 848 -160
WIRE 608 -112 608 -160
WIRE 272 16 272 -96
WIRE 848 96 848 -160
WIRE 848 96 320 96
WIRE 272 112 272 96
FLAG 608 -112 0
FLAG 608 -624 bias
IOPIN 608 -624 BiDir
FLAG 272 112 0
FLAG 304 -192 0
FLAG 736 -512 pwr+
IOPIN 736 -512 BiDir
FLAG 368 -608 pwr+
IOPIN 368 -608 BiDir
FLAG 720 -416 pwr-
IOPIN 720 -416 BiDir
FLAG 352 -352 pwr-
IOPIN 352 -352 BiDir
FLAG 976 -160 vco_out
IOPIN 976 -160 BiDir
FLAG -240 -416 v_controll
IOPIN -240 -416 BiDir
SYMBOL res 592 -592 R0
SYMATTR InstName R1
SYMATTR Value 100k
SYMBOL res 784 -320 R90
WINDOW 0 0 56 VBottom 2
WINDOW 3 32 56 VTop 2
SYMATTR InstName R2
SYMATTR Value 100k
SYMBOL res 624 -144 R180
WINDOW 0 36 76 Left 2
WINDOW 3 36 40 Left 2
SYMATTR InstName R3
SYMATTR Value 100k
SYMBOL res 224 -464 R90
WINDOW 0 0 56 VBottom 2
WINDOW 3 32 56 VTop 2
SYMATTR InstName R4
SYMATTR Value 100k
SYMBOL res 208 -352 R90
WINDOW 0 0 56 VBottom 2
WINDOW 3 32 56 VTop 2
SYMATTR InstName R5
SYMATTR Value 10k
SYMBOL res 288 -80 R180
WINDOW 0 36 76 Left 2
WINDOW 3 36 40 Left 2
SYMATTR InstName R6
SYMATTR Value 49.9k
SYMBOL res 320 -240 R180
WINDOW 0 36 76 Left 2
WINDOW 3 36 40 Left 2
SYMATTR InstName R7
SYMATTR Value 10k
SYMBOL cap 352 -560 R90
WINDOW 0 0 32 VBottom 2
WINDOW 3 32 32 VTop 2
SYMATTR InstName C1
SYMATTR Value 10p
SYMBOL nmos 320 16 M0
SYMATTR InstName M1
SYMATTR Value bs170
SYMBOL Opamps/LT1007 352 -496 R0
SYMATTR InstName U1
SYMBOL Opamps/LT1007 720 -512 R0
SYMATTR InstName U2
TEXT 392 -672 Left 2 ;vco
TEXT 312 136 Left 2 !.model bs170 NMOS(Vto=1.5 level=2)
