Version 4
SHEET 1 1184 1164
WIRE -512 48 -512 -32
WIRE -320 48 -320 -32
WIRE -192 48 -192 -32
WIRE -64 48 -64 -48
WIRE -512 176 -512 128
WIRE -320 176 -320 128
WIRE -192 176 -192 128
WIRE -64 176 -64 128
WIRE 496 272 496 160
WIRE 400 320 112 320
WIRE 640 352 592 352
WIRE 816 352 640 352
WIRE 400 384 272 384
WIRE 640 384 640 352
WIRE 112 400 112 320
WIRE 640 512 640 464
WIRE 112 544 112 480
WIRE 496 560 496 448
WIRE 816 592 816 352
WIRE 944 592 816 592
WIRE 1104 608 1008 608
WIRE 944 640 624 640
WIRE 496 800 496 688
WIRE 400 848 112 848
WIRE 624 880 624 640
WIRE 624 880 592 880
WIRE 640 880 624 880
WIRE 400 912 272 912
WIRE 640 912 640 880
WIRE 112 928 112 848
WIRE 640 1040 640 992
WIRE 112 1072 112 1008
WIRE 496 1088 496 976
FLAG 112 544 0
FLAG 640 512 0
FLAG 272 384 +5
FLAG 496 160 +15
FLAG 496 560 -15
FLAG -320 -32 +5
FLAG -512 -32 -5
FLAG -320 176 0
FLAG -512 176 0
FLAG -192 176 0
FLAG -64 176 0
FLAG -192 -32 +15
FLAG -64 -48 -15
FLAG 112 1072 0
FLAG 640 1040 0
FLAG 272 912 +5
FLAG 496 688 +15
FLAG 496 1088 -15
FLAG 1104 688 0
SYMBOL voltage 112 384 R0
SYMATTR InstName V1
SYMATTR Value 3
SYMBOL res 624 368 R0
SYMATTR InstName R1
SYMATTR Value 1k
SYMBOL vco 496 352 R0
SYMATTR InstName X1
SYMBOL voltage -512 32 R0
SYMATTR InstName V2
SYMATTR Value -5
SYMBOL voltage -320 32 R0
SYMATTR InstName V3
SYMATTR Value 5
SYMBOL voltage -192 32 R0
SYMATTR InstName V4
SYMATTR Value 15
SYMBOL voltage -64 32 R0
SYMATTR InstName V5
SYMATTR Value -15
SYMBOL voltage 112 912 R0
SYMATTR InstName V6
SYMATTR Value 3.2
SYMBOL res 624 896 R0
SYMATTR InstName R2
SYMATTR Value 1k
SYMBOL vco 496 880 R0
SYMATTR InstName X2
SYMBOL res 1088 592 R0
SYMATTR InstName R3
SYMATTR Value 100k
SYMBOL Digital/and 976 560 R0
SYMATTR InstName A1
TEXT 392 160 Left 2 ;vco
TEXT -464 -88 Left 2 ;supply rails
TEXT -456 408 Left 2 !.tran 0.001 0.002
TEXT 392 688 Left 2 ;vco
